16 
reference geometry for S19
C    -0.44444   +0.24701   +0.13754
C    +0.46516   +1.28342   -0.01406
C    +1.82115   +1.02336   -0.12141
C    +2.28065   -0.28193   -0.08887
C    +1.37751   -1.32311   +0.05344
C    +0.02381   -1.06026   +0.16805
H    +0.10950   +2.30369   -0.05152
H    +2.51721   +1.83975   -0.23979
H    +3.33624   -0.48770   -0.17833
H    +1.72959   -2.34325   +0.07756
H    -0.68458   -1.86738   +0.28042
C    -1.91162   +0.52997   +0.29023
O    -2.73031   -0.43978   -0.30627
H    -2.18446   +0.52613   +1.34367
H    -2.13344   +1.52798   -0.09450
H    -2.52089   -0.49170   -1.23682
