11 
reference geometry for S15
C    -0.16354   +0.75126   -0.00000
C    +1.16625   +0.63542   -0.00000
H    -0.62164   +1.72965   +0.00000
H    +1.73680   +1.55606   +0.00000
C    +1.98798   -0.60304   +0.00000
C    -1.10604   -0.36330   -0.00000
H    +1.40605   -1.51672   -0.00005
H    +2.63936   -0.61446   -0.87253
H    +2.63927   -0.61451   +0.87260
O    -2.30267   -0.21036   +0.00000
H    -0.68633   -1.37927   -0.00001
