12 
reference geometry for S16
C    -0.71130   -0.30091   +0.32927
C    -1.84687   +0.02149   -0.27194
H    -0.65661   -1.23417   +0.87927
H    -2.71531   -0.61713   -0.22255
H    -1.94464   +0.94019   -0.83357
C    +0.53537   +0.51557   +0.30561
C    +1.71186   -0.24042   -0.29061
H    +0.35709   +1.43338   -0.25310
H    +0.78554   +0.81359   +1.32542
H    +1.51263   -0.51593   -1.32349
H    +2.61698   +0.36188   -0.26927
H    +1.90990   -1.15616   +0.26334
