11 
reference geometry for S13
C    -1.30267   +0.54201   +0.00001
C    +0.02113   +0.71518   -0.00001
H    -1.98257   +1.37817   +0.00002
H    +0.37510   +1.73459   -0.00001
C    +1.01115   -0.33762   +0.00000
O    -1.97468   -0.62075   -0.00001
C    +2.32789   -0.13857   +0.00000
H    +0.66514   -1.36563   +0.00001
H    +3.02211   -0.96306   +0.00003
H    +2.74449   +0.85807   -0.00002
H    -1.37183   -1.36216   -0.00001
